/*--------------------------------*- C++ -*----------------------------------*\
  =========                 |
  \\      /  F ield         | OpenFOAM: The Open Source CFD Toolbox
   \\    /   O peration     | Website:  https://openfoam.org
    \\  /    A nd           | Version:  9
     \\/     M anipulation  |
\*---------------------------------------------------------------------------*/
FoamFile
{
    format      ascii;
    class       dictionary;
    location    "constant";
    object      chemistryProperties;
}
// * * * * * * * * * * * * * * * * * * * * * * * * * * * * * * * * * * * * * //

#includeEtc "caseDicts/solvers/chemistry/TDAC/chemistryProperties.cfg"

chemistryType
{
    solver            ode;
    //chemistryThermo	psi; //Not necessary, specified elsewhere in thermoPhysicalProperties
    //method            TDAC; //Not necessary, standard is used
}

chemistry       on;

initialChemicalTimeStep 1e-10;

EulerImplicitCoeffs
{
    cTauChem        1;
    equilibriumRateLimiter off;
}

//maxChemicalTimeStep 1e-3;

odeCoeffs
{
    solver          seulex;
    absTol          1e-12;
    relTol          1e-1;
}

/*reduction
{
    tolerance   1e-4;
}

tabulation
{
    tolerance   3e-3;
}*/

// CCM properties not necessary, it's used when reactions are turned off
#include "FOAMConnaireChem"

// ************************************************************************* //

differentialDiffusion on;
thermalDiffusion off;

Prt  Prt [0 0 0 0 0] 0.7;
Sct  Sct [0 0 0 0 0] 0.7;
